1
9
.tran 1u 30m{return}{return}
1
1
Out
V
